Version 4
SHEET 1 984 772
WIRE 928 -256 928 -304
WIRE 928 -128 928 -176
WIRE 192 -48 160 -48
WIRE 288 -48 272 -48
WIRE 496 80 448 80
WIRE 608 80 576 80
WIRE 240 96 240 64
WIRE 160 112 160 -48
WIRE 160 112 64 112
WIRE 208 112 160 112
WIRE 848 112 688 112
WIRE 288 128 288 -48
WIRE 288 128 272 128
WIRE 320 128 288 128
WIRE 448 128 448 80
WIRE 448 128 400 128
WIRE 208 144 -112 144
WIRE 240 192 240 160
WIRE 64 208 64 112
WIRE 768 208 768 176
WIRE -112 224 -112 144
WIRE 528 224 528 192
WIRE 688 224 688 112
WIRE 736 224 688 224
WIRE 208 240 160 240
WIRE 448 240 448 128
WIRE 496 240 448 240
WIRE 848 240 848 112
WIRE 848 240 800 240
WIRE 608 256 608 80
WIRE 608 256 560 256
WIRE 736 256 608 256
WIRE 496 272 400 272
WIRE 768 320 768 272
WIRE 528 336 528 288
WIRE 240 352 240 320
WIRE 64 368 64 288
WIRE 160 368 160 240
WIRE 160 368 64 368
WIRE 208 368 160 368
WIRE 288 384 288 240
WIRE 288 384 272 384
WIRE 320 384 288 384
WIRE 400 384 400 272
WIRE 496 384 400 384
WIRE -112 400 -112 304
WIRE 208 400 -112 400
WIRE 240 448 240 416
WIRE 656 448 656 416
WIRE 496 480 496 384
WIRE 496 576 496 560
WIRE 656 576 656 528
WIRE 656 576 496 576
WIRE 656 624 656 576
WIRE 656 752 656 704
FLAG 768 320 0
FLAG 528 336 0
FLAG 240 448 0
FLAG 240 192 0
FLAG 928 -128 0
FLAG 928 -304 +5V
FLAG 768 176 +5V
FLAG 528 192 +5V
FLAG 240 64 +5V
FLAG 240 320 +5V
FLAG 656 416 +5V
FLAG 656 752 0
SYMBOL OpAmps\\OP191 240 64 R0
SYMATTR InstName U1
SYMBOL OpAmps\\OP191 240 320 R0
SYMATTR InstName U2
SYMBOL OpAmps\\OP191 528 192 R0
SYMATTR InstName U3
SYMBOL OpAmps\\OP191 768 176 R0
SYMATTR InstName U4
SYMBOL voltage 928 -272 R0
WINDOW 123 0 0 Left 0
WINDOW 39 0 0 Left 0
SYMATTR InstName V1
SYMATTR Value 5
SYMBOL voltage -112 208 R0
WINDOW 123 0 0 Left 0
WINDOW 39 0 0 Left 0
SYMATTR InstName V2
SYMATTR Value SINE(0 0.02 30)
SYMBOL res 416 112 R90
WINDOW 0 0 56 VBottom 2
WINDOW 3 32 56 VTop 2
SYMATTR InstName R1
SYMATTR Value 1k
SYMBOL res 288 -64 R90
WINDOW 0 0 56 VBottom 2
WINDOW 3 32 56 VTop 2
SYMATTR InstName R2
SYMATTR Value 8.2k
SYMBOL res 304 224 R90
WINDOW 0 0 56 VBottom 2
WINDOW 3 32 56 VTop 2
SYMATTR InstName R3
SYMATTR Value 8.2k
SYMBOL res 592 64 R90
WINDOW 0 0 56 VBottom 2
WINDOW 3 32 56 VTop 2
SYMATTR InstName R4
SYMATTR Value 8.2k
SYMBOL res 416 368 R90
WINDOW 0 0 56 VBottom 2
WINDOW 3 32 56 VTop 2
SYMATTR InstName R5
SYMATTR Value 1k
SYMBOL res 512 576 R180
WINDOW 0 36 76 Left 2
WINDOW 3 36 40 Left 2
SYMATTR InstName R6
SYMATTR Value 8.2k
SYMBOL res 672 544 R180
WINDOW 0 36 76 Left 2
WINDOW 3 36 40 Left 2
SYMATTR InstName R7
SYMATTR Value 10k
SYMBOL res 672 720 R180
WINDOW 0 36 76 Left 2
WINDOW 3 36 40 Left 2
SYMATTR InstName R8
SYMATTR Value 10k
SYMBOL res 48 192 R0
SYMATTR InstName R9
SYMATTR Value 2k
TEXT -160 736 Left 2 !.tran 0.2
